Info: SIMULATION PARAMETERS:
Info: TIMESTEP               1
Info: NUMBER OF STEPS        0
Info: STEPS PER CYCLE        20
Info: FIRST LDB TIMESTEP     100
Info: LAST LDB TIMESTEP     -1
Info: HOM BACKGROUND SCALING 1
Info: MIN ATOMS PER PATCH    40
Info: INITIAL TEMPERATURE    0
Info: CENTER OF MASS MOVING INITIALLY? NO
Info: DIELECTRIC             1
Info: EXCLUDE                SCALED ONE-FOUR
Info: 1-4 ELECTROSTATICS SCALED BY 1
Info: MODIFIED 1-4 VDW PARAMETERS WILL BE USED
Info: NO DCD TRAJECTORY OUTPUT
Info: NO EXTENDED SYSTEM TRAJECTORY OUTPUT
Info: NO VELOCITY DCD OUTPUT
Info: NO FORCE DCD OUTPUT
Info: OUTPUT FILENAME        bpti_out
Info: NO RESTART FILE
Info: SWITCHING ACTIVE
Info: SWITCHING ON           8
Info: SWITCHING OFF          12
Info: PAIRLIST DISTANCE      13.5
Info: PAIRLIST SHRINK RATE   0.01
Info: PAIRLIST GROW RATE     0.01
Info: PAIRLIST TRIGGER       0.3
Info: PAIRLISTS PER CYCLE    2
Info: PAIRLISTS ENABLED
Info: MARGIN                 0
Info: HYDROGEN GROUP CUTOFF  2.5
Info: PATCH DIMENSION        16
Info: ENERGY OUTPUT STEPS    10
Info: CROSSTERM ENERGY INCLUDED IN DIHEDRAL
Info: TIMING OUTPUT STEPS    100
Info: INTERACTIVE MD ACTIVE
Info: INTERACTIVE MD PORT    3111
Info: INTERACTIVE MD FREQ    1
Info: LANGEVIN DYNAMICS ACTIVE
Info: LANGEVIN TEMPERATURE   300
Info: LANGEVIN USING BBK INTEGRATOR
Info: LANGEVIN DAMPING COEFFICIENT IS 10 INVERSE PS
Info: LANGEVIN DYNAMICS APPLIED TO HYDROGENS
Info: USING VERLET I (r-RESPA) MTS SCHEME.
Info: C1 SPLITTING OF LONG RANGE ELECTROSTATICS
Info: PLACING ATOMS IN PATCHES BY HYDROGEN GROUPS
Info: RANDOM NUMBER SEED     1512387055
Info: USE HYDROGEN BONDS?    NO
Info: COORDINATE PDB         bpti.pdb
Info: STRUCTURE FILE         bpti.psf
Info: PARAMETER file: CHARMM format!
Info: PARAMETERS             par_all22_prot.inp
Info: USING ARITHMETIC MEAN TO COMBINE L-J SIGMA PARAMETERS
Info: SUMMARY OF PARAMETERS:
Info: 138 BONDS
Info: 341 ANGLES
Info: 443 DIHEDRAL
Info: 43 IMPROPER
Info: 0 CROSSTERM
Info: 60 VDW
Info: 0 VDW_PAIRS
Info: 0 NBTHOLE_PAIRS
Info: STRUCTURE SUMMARY:
Info: 882 ATOMS
Info: 896 BONDS
Info: 1608 ANGLES
Info: 2366 DIHEDRALS
Info: 139 IMPROPERS
Info: 0 CROSSTERMS
Info: 0 EXCLUSIONS
Info: 2646 DEGREES OF FREEDOM
Info: 449 HYDROGEN GROUPS
Info: 4 ATOMS IN LARGEST HYDROGEN GROUP
Info: 449 MIGRATION GROUPS
Info: 4 ATOMS IN LARGEST MIGRATION GROUP
Info: TOTAL MASS = 6446.48 amu
Info: TOTAL CHARGE = 6 e
Info: ADDED 4826 IMPLICIT EXCLUSIONS
Info: NONBONDED TABLE R-SQUARED SPACING: 0.0625
Info: NONBONDED TABLE SIZE: 769 POINTS
Info: ORIGINAL ATOMS MINMAX IS -9.743 -10.57 -11.755  24.785 20.324 19.613
Info: ADJUSTED ATOMS MINMAX IS -4.11688 -5.2265 -7.03437  19.6319 16.4685 13.8594
Info: REMOVING COM VELOCITY 0 0 0
Info: Interactive MD listening on port 3111.
TCL: Minimizing for 200 steps
ETITLE: TS BOND ANGLE DIHED IMPRP ELECT VDW BOUNDARY MISC KINETIC TOTAL TEMP POTENTIAL TOTAL3 TEMPAVG
ENERGY: 0 236.5950 822.9210 258.6547 11.6258 -1280.8558 553.4693 0.0000 0.0000 0.0000 602.4101 0.0000 602.4101 602.4101 0.0000
ENERGY: 40 79.8219 238.2437 264.0029 9.2854 -1338.6061 -170.3534 0.0000 0.0000 0.0000 -917.6055 0.0000 -917.6055 -917.6055 0.0000
ENERGY: 80 50.7268 162.8584 257.3550 5.9680 -1367.8806 -187.6960 0.0000 0.0000 0.0000 -1078.6684 0.0000 -1078.6684 -1078.6684 0.0000
ENERGY: 120 53.9167 153.5255 257.0803 6.1635 -1396.5796 -196.2679 0.0000 0.0000 0.0000 -1122.1615 0.0000 -1122.1615 -1122.1615 0.0000
ENERGY: 160 53.4272 160.0002 253.2142 6.8688 -1430.3843 -198.7379 0.0000 0.0000 0.0000 -1155.6118 0.0000 -1155.6118 -1155.6118 0.0000
ENERGY: 200 56.3712 154.7146 251.4936 6.7681 -1446.3348 -200.2668 0.0000 0.0000 0.0000 -1177.2542 0.0000 -1177.2542 -1177.2542 0.0000
TCL: Running for 20000 steps
ETITLE: TS BOND ANGLE DIHED IMPRP ELECT VDW BOUNDARY MISC KINETIC TOTAL TEMP POTENTIAL TOTAL3 TEMPAVG
ENERGY: 200 56.3712 154.7146 251.4936 6.7681 -1446.3348 -200.2668 0.0000 0.0000 0.0000 -1177.2542 0.0000 -1177.2542 -1177.4881 0.0000
ENERGY: 4200 329.2321 462.8952 335.8230 21.8617 -1897.0557 -121.7148 0.0000 0.0000 767.6669 -101.2917 291.9936 -868.9586 -98.6671 298.5157
ENERGY: 8200 305.2190 511.5315 345.3456 39.4265 -2021.1891 -120.8496 0.0000 0.0000 746.4838 -194.0324 283.9363 -940.5161 -186.9004 286.5815
ENERGY: 12200 299.1282 507.9279 360.0923 27.2593 -2044.0959 -88.4307 0.0000 0.0000 787.6854 -150.4336 299.6080 -938.1190 -146.3426 298.5737
ENERGY: 16200 330.9357 486.2864 366.5164 32.1815 -2043.1107 -104.1867 0.0000 0.0000 785.7579 -145.6195 298.8748 -931.3774 -143.0458 303.4622
ENERGY: 20200 316.3252 535.1903 353.4704 29.2765 -2071.9697 -129.6626 0.0000 0.0000 746.6421 -220.7279 283.9965 -967.3699 -214.7990 287.6136
